%cpu=0-3
#P B98/cc-pVDZ
force

water dimer

0 1
O                 0.0000000000        0.0000000000        0.1192620000
H                 0.0000000000        0.7632390000       -0.4770470000
H                 0.0000000000       -0.7632390000       -0.4770470000
O                -2.6726112702       -1.7789264883        0.8689603240
H                -2.4419553952       -1.5155492753        1.7720375663
H                -2.3514923409       -1.0468264610        0.3221236228
